 16

C    0.000000   0.000000   0.000000
C    0.000000   0.000000   1.500535
H    0.000000   0.983560  -0.482845
C    1.506886   0.172736   1.851141
H   -0.377304  -0.946563   1.908822
H   -0.604995   0.818472   1.916502
C    2.340263  -0.597326   0.855748
H    1.707931  -0.151667   2.886476
H    1.763297   1.242728   1.797660
C    0.742036  -0.943330  -0.687812
H    2.513309  -1.659631   1.049024
H    3.161845  -0.086766   0.345065
H    1.089209  -0.715196  -1.701289
O    0.701578  -2.309379  -0.637240
O    0.219872  -2.778501   0.609649
H    0.719904  -3.601988   0.675879