 14

C    0.706231  -1.309526   0.217839
C    1.753898  -0.609882  -0.438616
H    0.860898  -2.266264   0.724216
C    1.643257   0.782541  -0.300847
H    2.586999  -1.102722  -0.941403
C    0.756954   1.298088   0.619672
H    2.219802   1.461191  -0.937415
H    0.421387   0.766215   1.505219
H    0.569852   2.376782   0.625173
C   -0.502312  -0.711252   0.414522
H   -1.232948  -1.200782   1.066958
O   -1.095143   0.274046  -0.315507
O   -2.498373   0.018742  -0.298976
H   -2.826031   0.923463  -0.202315