 15

C   -0.498157   0.370789   0.846134
C   -0.154657  -0.926862   0.695553
H   -1.274591   0.741119   1.516016
C    1.002080  -1.087900  -0.255160
H   -0.685654  -1.756906   1.156157
C    1.559222   0.346985  -0.384266
H    1.745092  -1.810811   0.100410
H    0.641780  -1.480534  -1.229702
C    0.415986   1.281834   0.069259
H    2.423578   0.454969   0.292366
H    1.921471   0.574490  -1.397938
H    0.791336   2.136037   0.670968
H   -0.140508   1.710593  -0.769777
O   -2.209327  -0.001185  -0.609408
H   -1.672990  -0.438204  -1.300446