 16

C    0.399321  -1.192975  -0.127820
C    1.848731  -0.886010   0.124875
H    0.110721  -1.994491  -0.812960
C    1.987460   0.636980   0.348262
H    2.276418  -1.453763   0.969425
H    2.428823  -1.187806  -0.764050
C    0.951833   1.343026  -0.480499
H    1.828221   0.875832   1.413414
H    3.014924   0.967991   0.115597
C   -0.516378  -0.202944   0.146334
H    0.996671   1.214047  -1.567436
H    0.576237   2.317367  -0.151715
H   -0.518663   0.421629   1.044027
O   -1.737971  -0.268083  -0.459020
O   -2.701493   0.393701   0.337306
H   -3.223442  -0.354207   0.660499