 14

C   -1.847330   0.518172  -0.384762
C   -1.382839  -0.924450  -0.543072
H   -2.718813   0.877581  -0.947311
C   -0.430104  -1.108241   0.600114
H   -0.885958  -1.043128  -1.521571
H   -2.222945  -1.633472  -0.509289
C    0.548184  -0.160102   0.756823
H   -0.769957  -1.629719   1.498553
O    1.165609   0.446257  -0.319369
H    1.112248  -0.074928   1.693291
C   -1.147425   1.298978   0.419713
H   -1.186788   2.349020   0.708262
O    2.486328  -0.107908  -0.388431
H    3.013799   0.701714  -0.352427