 16

C    0.707308  -1.191037   0.494866
C    1.546705  -0.656332  -0.625627
H    1.194741  -1.543344   1.396327
C    1.750148   0.830577  -0.195364
H    1.019716  -0.701813  -1.579474
H    2.498495  -1.176335  -0.736336
C    0.475440   1.343432   0.432574
H    2.050734   1.442326  -1.051292
H    2.563045   0.870146   0.533887
C   -0.524835  -0.633037   0.646588
H   -0.286240   1.764335  -0.211437
H    0.522319   1.769951   1.427425
H   -1.096655  -0.679109   1.567831
O   -1.313538  -0.499930  -0.486452
O   -2.321783   0.510007  -0.191581
H   -3.112181   0.011606  -0.440885