 16

C    0.698593  -1.211690   0.482545
C    1.539415  -0.659422  -0.629282
H    1.188997  -1.594974   1.381462
C    1.751676   0.825363  -0.203286
H    1.007454  -0.704229  -1.591466
H    2.496228  -1.186101  -0.751824
C    0.495153   1.353080   0.448022
H    2.044367   1.439576  -1.071168
H    2.587789   0.867805   0.512319
C   -0.537634  -0.631747   0.650383
H   -0.279708   1.793530  -0.184239
H    0.565042   1.781224   1.452205
H   -1.105522  -0.690474   1.586692
O   -1.327754  -0.486943  -0.463144
O   -2.310465   0.505631  -0.190176
H   -3.082123   0.090636  -0.597702