 15

C   -0.447394   0.387034   0.887573
C   -0.128661  -0.913277   0.732928
H   -1.210068   0.758963   1.581853
C    0.975756  -1.095838  -0.275152
H   -0.613972  -1.744794   1.255760
C    1.553939   0.327475  -0.421006
H    1.717360  -1.842262   0.002941
H    0.517019  -1.436855  -1.237469
C    0.432703   1.277577   0.050734
H    2.419871   0.428197   0.240021
H    1.885878   0.553736  -1.443767
H    0.810856   2.146355   0.614062
H   -0.174752   1.664454  -0.781317
O   -2.215613   0.055693  -0.640866
H   -2.344201  -1.111243  -0.588284