 15

C   -0.449288   0.387765   0.881464
C   -0.131196  -0.913069   0.729333
H   -1.221694   0.764608   1.552843
C    0.980208  -1.097351  -0.271106
H   -0.640995  -1.740230   1.228696
C    1.557001   0.326506  -0.420244
H    1.731060  -1.834562   0.050411
H    0.570078  -1.473511  -1.228172
C    0.435052   1.277479   0.048388
H    2.428916   0.433020   0.242805
H    1.899684   0.542481  -1.441855
H    0.816211   2.143641   0.611361
H   -0.158049   1.671863  -0.792343
O   -2.225685   0.052750  -0.630168
H   -2.003630  -0.837307  -0.958810