 15

C   -0.545193   0.424473   0.800058
C   -0.220346  -0.903028   0.756382
H   -1.435698   0.789792   1.304930
C    0.893419  -1.158870  -0.215679
H   -0.673012  -1.770985   1.334966
C    1.525120   0.236492  -0.412557
H    1.726334  -1.891172   0.222708
H    0.570510  -1.636690  -1.106318
C    0.449968   1.255974   0.032067
H    2.385558   0.416187   0.243520
H    1.851806   0.376298  -1.447459
H    0.698677   2.010615   0.659054
H   -0.074217   1.717500  -0.931177
O   -1.901285   0.118355  -0.739767
H   -2.411051  -0.486850  -0.302664