 15

C   -0.484563   0.448259   0.867995
C   -0.234373  -0.877112   0.752385
H   -1.239022   0.884384   1.520712
C    0.866829  -1.146900  -0.233084
H   -0.785668  -1.671547   1.267083
C    1.530570   0.235535  -0.412898
H    1.580099  -1.919169   0.118015
H    0.428772  -1.518697  -1.169796
C    0.484735   1.269564   0.061064
H    2.423672   0.304049   0.226039
H    1.858582   0.410471  -1.446322
H    0.917329   2.079601   0.653161
H   -0.055651   1.734492  -0.787478
O   -1.938780   0.064539  -0.790507
H   -2.593192  -0.429153  -0.285047