 15

C   -0.473539   0.452583   0.880347
C   -0.236923  -0.872400   0.751659
H   -1.203262   0.901582   1.559946
C    0.861995  -1.144724  -0.236248
H   -0.806152  -1.653467   1.254741
C    1.531560   0.235361  -0.412960
H    1.553511  -1.924259   0.098979
H    0.403002  -1.497243  -1.181338
C    0.491057   1.272034   0.066336
H    2.430602   0.283661   0.222861
H    1.859814   0.416685  -1.446116
H    0.957085   2.092143   0.652089
H   -0.052275   1.737582  -0.761350
O   -1.945598   0.054755  -0.799733
H   -2.626308  -0.418663  -0.281843