 15

C   -0.019144  -0.668798   1.070720
C   -0.019256   0.668956   1.070660
H    0.407498  -1.295338   1.857426
C   -0.636859   1.230840  -0.186428
H    0.407623   1.295636   1.857129
C   -1.327146  -0.000095  -0.813323
H   -1.339436   2.055417   0.016455
H    0.152328   1.638067  -0.841307
C   -0.636730  -1.230895  -0.186285
H   -2.393188  -0.000136  -0.533615
H   -1.281686  -0.000156  -1.911260
H   -1.339224  -2.055516   0.016705
H    0.152486  -1.638120  -0.841130
O    2.331816   0.000005  -0.703805
H    2.458923   0.000052   0.268849