 14

C   -2.069064   0.698196   0.026657
C   -1.899131  -0.797031   0.228675
H   -3.069607   1.144801   0.107692
C   -0.489481  -1.124461  -0.181367
H   -2.626287  -1.361026  -0.375769
H   -2.109298  -1.066031   1.281561
C    0.494115  -0.243257   0.187551
H   -0.294123  -1.811132  -1.008743
C   -0.986962   1.411226  -0.234502
O    1.685015  -0.278273  -0.467524
H    0.534726   0.272760   1.150552
H   -0.813535   2.475918  -0.399954
O    2.699313   0.239371   0.372546
H    3.006638   0.987889  -0.157585